/*--------------------------------*- C++ -*----------------------------------*\
  =========                 |
  \\      /  F ield         | OpenFOAM: The Open Source CFD Toolbox
   \\    /   O peration     | Website:  https://openfoam.org
    \\  /    A nd           | Version:  6
     \\/     M anipulation  |
\*---------------------------------------------------------------------------*/
FoamFile
{
    version     2.0;
    format      ascii;
    class       volVectorField;
    location    "0";
    object      U;
}
// * * * * * * * * * * * * * * * * * * * * * * * * * * * * * * * * * * * * * //

dimensions      [0 1 -1 0 0 0 0];

internalField   uniform (0 0 0);

boundaryField
{
    fuel
    {
        type            fixedValue;
        value           uniform (0 0 0.46806); //global strain rate is 100
    }
    oxidizer
    {
        type            fixedValue;
        value           uniform (0 0 -0.53194); //global strain rate is 100
    }

    outlet
    {
//        type            zeroGradient;
        type            pressureInletOutletVelocity;
        value           $internalField;
    }

    axis
    {
        type            empty;
    }

    front
    {
        type            wedge;
    }

    back
    {
        type            wedge;
    }

}


// ************************************************************************* //
