/*--------------------------------*- C++ -*----------------------------------*\
  =========                 |
  \\      /  F ield         | OpenFOAM: The Open Source CFD Toolbox
   \\    /   O peration     | Website:  https://openfoam.org
    \\  /    A nd           | Version:  6
     \\/     M anipulation  |
\*---------------------------------------------------------------------------*/
FoamFile
{
    version     2.0;
    format      ascii;
    class       dictionary;
    location    "constant";
    object      thermophysicalProperties;
}
// * * * * * * * * * * * * * * * * * * * * * * * * * * * * * * * * * * * * * //

thermoType
{
    type            hePsiThermo;
    //mixture         PRchungKineticReactingMixture;
    mixture         PRchungTakaReactingMixture;
    //transport       chungKinetic;
    transport       chungTaka;
    thermo          rfJanaf;
    energy          sensibleEnthalpy;
    equationOfState PengRobinson;
    specie          rfSpecie;
}


inertSpecie CH4;

chemistryReader foamChemistryReader;

foamChemistryFile "$FOAM_CASE/constant/reactions";

foamChemistryThermoFile "$FOAM_CASE/constant/thermo.inputData";


// ************************************************************************* //
